Version 4
SHEET 1 880 680
WIRE 320 0 -96 0
WIRE 464 16 384 16
WIRE 320 32 256 32
WIRE -352 160 -432 160
WIRE -224 160 -272 160
WIRE -96 160 -96 0
WIRE -96 160 -224 160
WIRE -80 160 -96 160
WIRE 80 160 0 160
WIRE 128 160 80 160
WIRE 256 160 256 32
WIRE 256 160 192 160
WIRE 320 160 256 160
WIRE 464 160 464 16
WIRE 464 160 400 160
WIRE 528 160 464 160
WIRE 704 160 608 160
WIRE 800 160 704 160
WIRE -432 224 -432 160
WIRE -224 224 -224 160
WIRE 800 224 800 160
WIRE -96 240 -96 160
WIRE 256 304 256 160
WIRE 256 304 192 304
WIRE 80 320 80 160
WIRE 128 320 80 320
WIRE 704 336 704 160
WIRE 704 336 192 336
WIRE 800 336 800 304
WIRE -432 352 -432 304
WIRE -224 352 -224 304
WIRE -224 352 -432 352
WIRE -96 352 -96 304
WIRE -96 352 -224 352
WIRE -224 400 -224 352
FLAG 800 336 0
FLAG -224 400 0
SYMBOL OpAmps\\opamp 352 80 M180
SYMATTR InstName U1
SYMBOL res 16 144 R90
WINDOW 0 0 56 VBottom 2
WINDOW 3 32 56 VTop 2
SYMATTR InstName R1
SYMATTR Value 1
SYMBOL cap 192 144 R90
WINDOW 0 0 32 VBottom 2
WINDOW 3 32 32 VTop 2
SYMATTR InstName C2
SYMATTR Value 1
SYMBOL res 416 144 R90
WINDOW 0 0 56 VBottom 2
WINDOW 3 32 56 VTop 2
SYMATTR InstName R3
SYMATTR Value 1
SYMBOL res 624 144 R90
WINDOW 0 0 56 VBottom 2
WINDOW 3 32 56 VTop 2
SYMATTR InstName R4
SYMATTR Value 1
SYMBOL OpAmps\\opamp 160 256 M0
WINDOW 0 -18 22 Left 2
SYMATTR InstName U2
SYMBOL res 784 208 R0
SYMATTR InstName R5
SYMATTR Value 1
SYMBOL voltage -432 208 R0
WINDOW 0 -86 48 Left 2
WINDOW 3 -85 77 Left 2
WINDOW 123 -86 104 Left 2
WINDOW 39 0 0 Left 0
SYMATTR InstName V1
SYMATTR Value 1
SYMATTR Value2 AC 1 0
SYMBOL res -256 144 R90
WINDOW 0 0 56 VBottom 2
WINDOW 3 32 56 VTop 2
SYMATTR InstName Rb
SYMATTR Value R/a
SYMBOL res -240 208 R0
SYMATTR InstName Rc
SYMATTR Value R/(1-a)
SYMBOL cap -112 240 R0
WINDOW 3 34 54 Left 2
SYMATTR InstName C1
SYMATTR Value 1
TEXT -496 440 Left 2 !.lib opamp.sub
TEXT -496 464 Left 2 !.ac dec 100 0.01 10
